OPT_V10/Two_days_MYC3_SOS/powerflow_results_t21.txt
Pandapower Network Debug Info
==================================================

BUS:
       vm_pu  va_degree      p_mw    q_mvar
0   0.992374   0.161375  0.001111  0.001120
1   0.987991   0.270671  0.001535  0.002347
2   0.984374   0.377857  0.001471  0.003158
3   0.987882   0.260388  0.002902  0.004800
4   0.999885   0.000798  0.011666  0.010733
5   0.999872   0.000845  0.009261  0.008420
6   0.999862   0.000878  0.012196  0.010681
7   0.999928   0.000620  0.000000  0.000000
8   0.999928   0.000627  0.000000  0.000000
9   1.000000   0.000000 -0.040311 -0.046375
10  1.000000   0.000006  0.000000  0.000000
--------------------------------------------------

LINE:
   p_from_mw  q_from_mvar   p_to_mw  q_to_mvar         pl_mw       ql_mvar  i_from_ka   i_to_ka      i_ka  vm_from_pu  va_from_degree  vm_to_pu  va_to_degree  loading_percent
0   0.040301     0.042375 -0.040298  -0.042373  3.345056e-06  2.608196e-06   0.002251  0.002251  0.002251    1.000000        0.000006  0.999928      0.000620         0.978640
1   0.033125     0.029836 -0.033124  -0.029835  1.537100e-06  1.198502e-06   0.001716  0.001716  0.001716    0.999928        0.000620  0.999885      0.000798         0.746109
2   0.007162     0.011537 -0.007076  -0.011470  8.625941e-05  6.725789e-05   0.019602  0.019602  0.019602    0.999928        0.000627  0.992374      0.161375         8.522393
3  -0.021457    -0.019101  0.021458   0.019101  2.854703e-07  2.225859e-07   0.001106  0.001106  0.001106    0.999872        0.000845  0.999885      0.000798         0.480811
4  -0.012196    -0.010681  0.012196   0.010682  1.285810e-07  1.002568e-07   0.000624  0.000624  0.000624    0.999862        0.000878  0.999872      0.000845         0.271347
5  -0.003017    -0.005514  0.003041   0.005533  2.394691e-05  1.867180e-05   0.009183  0.009183  0.009183    0.987991        0.270671  0.992374      0.161375         3.992574
6  -0.002902    -0.004800  0.002923   0.004817  2.152433e-05  1.678287e-05   0.008195  0.008195  0.008195    0.987882        0.260388  0.992374      0.161375         3.563122
7  -0.001471    -0.003158  0.001482   0.003167  1.133239e-05  8.836049e-06   0.005109  0.005109  0.005109    0.984374        0.377857  0.987991      0.270671         2.221189
--------------------------------------------------

TRAFO:
    p_hv_mw  q_hv_mvar   p_lv_mw  q_lv_mvar    pl_mw  ql_mvar   i_hv_ka   i_lv_ka  vm_hv_pu  va_hv_degree  vm_lv_pu  va_lv_degree  loading_percent
0  0.007172   0.012537 -0.007162  -0.011537  0.00001    0.001  0.000556  0.019602  0.999928       0.00062  0.999928      0.000627         0.144444
1  0.040311   0.046375 -0.040301  -0.042375  0.00001    0.004  0.000507  0.002251  1.000000       0.00000  1.000000      0.000006         0.153616
--------------------------------------------------
